Circuit: * K:\Git_personal\EASY_MRI_RFPA\LTSPICE simulations\Easy_DICO\DICO_giangrandi_flipped_simple.asc

Direct Newton iteration for .op point succeeded.
.step load_port=3 source_port=1
.step load_port=4 source_port=1
.step load_port=3 source_port=2
.step load_port=4 source_port=2


Measurement: ftest
  step	1000000
     1	(120dB,0°)
     2	(120dB,0°)
     3	(120dB,0°)
     4	(120dB,0°)

Measurement: s21_at_ftest
  step	(s21(vs))	at
     1	(-56.4963dB,95.0425°)	1e+006
     2	(-26.0276dB,-178.957°)	1e+006
     3	(-26.0484dB,4.47824°)	1e+006
     4	(-56.519dB,95.0429°)	1e+006


Date: Sat Apr 09 10:23:35 2022
Total elapsed time: 0.264 seconds.

tnom = 27
temp = 27
method = trap
totiter = 4
traniter = 0
tranpoints = 0
accept = 0
rejected = 0
matrix size = 38
fillins = 14
Matrix Compiler1:     167 opcodes
Matrix Compiler2: 2.81 KB object code size
