Circuit: * K:\Git_personal\EASY_MRI_RFPA\LTSPICE simulations\Easy_DICO\DICO_KA3BLO_simple.asc

Direct Newton iteration for .op point succeeded.
.step load_port=3 source_port=1
.step load_port=4 source_port=1
.step load_port=3 source_port=2
.step load_port=4 source_port=2


Measurement: ftest
  step	1000000
     1	(120dB,0°)
     2	(120dB,0°)
     3	(120dB,0°)
     4	(120dB,0°)

Measurement: s21_at_ftest
  step	(s21(vs))	at
     1	(-26.04dB,5.61346°)	1e+006
     2	(-52.242dB,96.8503°)	1e+006
     3	(-52.242dB,96.8503°)	1e+006
     4	(-26.0021dB,-179.981°)	1e+006


Date: Sat Apr 09 09:36:07 2022
Total elapsed time: 0.251 seconds.

tnom = 27
temp = 27
method = trap
totiter = 4
traniter = 0
tranpoints = 0
accept = 0
rejected = 0
matrix size = 38
fillins = 35
Matrix Compiler1:     210 opcodes
Matrix Compiler2: 3.08 KB object code size
