Circuit: * C:\Users\Joshua Rhodes\Dropbox\Mike Twieg Publications\ISMRM\2022 diy scanner\RFPA board\bias_controller_3_19_22.asc

WARNING: Node N003 is floating.

WARNING: Less than two connections to node N003.  This node is used by C2.
Direct Newton iteration for .op point succeeded.

Date: Sat Mar 19 12:59:35 2022
Total elapsed time: 0.579 seconds.

tnom = 27
temp = 27
method = modified trap
totiter = 60521
traniter = 60494
tranpoints = 16329
accept = 12546
rejected = 3783
matrix size = 26
fillins = 6
solver = Alternate
Matrix Compiler1: 1.69 KB object code size  0.3/0.2/[0.2]
Matrix Compiler2: 2.37 KB object code size  0.3/0.3/[0.2]

