Circuit: * C:\Users\Joshua Rhodes\Dropbox\Mike Twieg Publications\ISMRM\2022 diy scanner\RFPA board\Draft2.asc

L2: both pins shorted together -- ignoring.
Rs: both pins shorted together -- ignoring.
Direct Newton iteration for .op point succeeded.

Date: Sat Mar 19 21:22:05 2022
Total elapsed time: 0.054 seconds.

tnom = 27
temp = 27
method = trap
totiter = 26
traniter = 0
tranpoints = 0
accept = 0
rejected = 0
matrix size = 25
fillins = 11
solver = Alternate
Matrix Compiler1:     105 opcodes
Matrix Compiler2: 2.38 KB object code size
