Circuit: * C:\Users\Joshua Rhodes\Dropbox\Mike Twieg Publications\ISMRM\2022 diy scanner\RFPA board\LTspice\MOSFET_gatecharge.asc

Rs: both pins shorted together -- ignoring.
WARNING: Less than two connections to node T.  This node is used by V2.
Instance "m:m1:weak": Length shorter than recommended for a level 1 MOSFET.
Instance "m:m1:weak": Width narrower than recommended for a level 1 MOSFET.
Instance "m:m1:stro": Length shorter than recommended for a level 1 MOSFET.
Instance "m:m1:stro": Width narrower than recommended for a level 1 MOSFET.
Instance "m:m1:med": Length shorter than recommended for a level 1 MOSFET.
Instance "m:m1:med": Width narrower than recommended for a level 1 MOSFET.
Direct Newton iteration for .op point succeeded.

Date: Sun Mar 20 14:09:04 2022
Total elapsed time: 0.062 seconds.

tnom = 27
temp = 27
method = modified trap
totiter = 3904
traniter = 3893
tranpoints = 1407
accept = 1091
rejected = 316
matrix size = 38
fillins = 44
solver = Alternate
Matrix Compiler1: 6.46 KB object code size  1.1/0.9/[0.6]
Matrix Compiler2: 4.54 KB object code size  0.4/0.6/[0.4]

