Questionable use of curly braces in "b1 n002 0  v={{vg}*smallsig()}"
    Error: undefined symbol in: "(vg)*[smallsig]()"
Questionable use of curly braces in ".meas tran av_fund rms {v(out_bpf)/(vin/1.414)}"
    Error: undefined symbol in: "[v](out_bpf)/(vin/1.414)"
Questionable use of curly braces in ".meas tran pout_fund param {(vout_rms_fund**2/rload_hv_se)}"
    Error: undefined symbol in: "([vout_rms_fund]**2/rload_hv_se)"
Circuit: * C:\Users\Joshua Rhodes\Dropbox\Mike Twieg Publications\ISMRM\2022 diy scanner\RFPA board\LTspice\RFPA_IRF530N_pushpullx2_tran_param.asc

Direct Newton iteration for .op point succeeded.
.step vin_scale=0.0625
.step vin_scale=0.0743254
.step vin_scale=0.0883883
.step vin_scale=0.105112
.step vin_scale=0.125
.step vin_scale=0.148651
.step vin_scale=0.176777
.step vin_scale=0.210224
.step vin_scale=0.25
.step vin_scale=0.297302
.step vin_scale=0.353553
.step vin_scale=0.420448
.step vin_scale=0.5
.step vin_scale=0.594604
.step vin_scale=0.707107
.step vin_scale=0.840896
.step vin_scale=1


Measurement: pep
  step	50
     1	50
     2	50
     3	50
     4	50
     5	50
     6	50
     7	50
     8	50
     9	50
    10	50
    11	50
    12	50
    13	50
    14	50
    15	50
    16	50
    17	50

Measurement: vd
  step	48
     1	48
     2	48
     3	48
     4	48
     5	48
     6	48
     7	48
     8	48
     9	48
    10	48
    11	48
    12	48
    13	48
    14	48
    15	48
    16	48
    17	48

Measurement: vdmin
  step	12
     1	12
     2	12
     3	12
     4	12
     5	12
     6	12
     7	12
     8	12
     9	12
    10	12
    11	12
    12	12
    13	12
    14	12
    15	12
    16	12
    17	12

Measurement: rload_lv_se_target
  step	12.96
     1	12.96
     2	12.96
     3	12.96
     4	12.96
     5	12.96
     6	12.96
     7	12.96
     8	12.96
     9	12.96
    10	12.96
    11	12.96
    12	12.96
    13	12.96
    14	12.96
    15	12.96
    16	12.96
    17	12.96

Measurement: rload_lv_se
  step	12.96
     1	12.96
     2	12.96
     3	12.96
     4	12.96
     5	12.96
     6	12.96
     7	12.96
     8	12.96
     9	12.96
    10	12.96
    11	12.96
    12	12.96
    13	12.96
    14	12.96
    15	12.96
    16	12.96
    17	12.96

Measurement: idmin
  step	0.5
     1	0.5
     2	0.5
     3	0.5
     4	0.5
     5	0.5
     6	0.5
     7	0.5
     8	0.5
     9	0.5
    10	0.5
    11	0.5
    12	0.5
    13	0.5
    14	0.5
    15	0.5
    16	0.5
    17	0.5

Measurement: id
  step	3.27777777777778
     1	3.27778
     2	3.27778
     3	3.27778
     4	3.27778
     5	3.27778
     6	3.27778
     7	3.27778
     8	3.27778
     9	3.27778
    10	3.27778
    11	3.27778
    12	3.27778
    13	3.27778
    14	3.27778
    15	3.27778
    16	3.27778
    17	3.27778

Measurement: gm0
  step	16
     1	16
     2	16
     3	16
     4	16
     5	16
     6	16
     7	16
     8	16
     9	16
    10	16
    11	16
    12	16
    13	16
    14	16
    15	16
    16	16
    17	16

Measurement: gm
  step	2
     1	2
     2	2
     3	2
     4	2
     5	2
     6	2
     7	2
     8	2
     9	2
    10	2
    11	2
    12	2
    13	2
    14	2
    15	2
    16	2
    17	2

Measurement: rs
  step	0.4375
     1	0.4375
     2	0.4375
     3	0.4375
     4	0.4375
     5	0.4375
     6	0.4375
     7	0.4375
     8	0.4375
     9	0.4375
    10	0.4375
    11	0.4375
    12	0.4375
    13	0.4375
    14	0.4375
    15	0.4375
    16	0.4375
    17	0.4375

Measurement: rgbias
  step	100
     1	100
     2	100
     3	100
     4	100
     5	100
     6	100
     7	100
     8	100
     9	100
    10	100
    11	100
    12	100
    13	100
    14	100
    15	100
    16	100
    17	100

Measurement: rsource
  step	12.5
     1	12.5
     2	12.5
     3	12.5
     4	12.5
     5	12.5
     6	12.5
     7	12.5
     8	12.5
     9	12.5
    10	12.5
    11	12.5
    12	12.5
    13	12.5
    14	12.5
    15	12.5
    16	12.5
    17	12.5

Measurement: rfb
  step	289.848888888889
     1	289.849
     2	289.849
     3	289.849
     4	289.849
     5	289.849
     6	289.849
     7	289.849
     8	289.849
     9	289.849
    10	289.849
    11	289.849
    12	289.849
    13	289.849
    14	289.849
    15	289.849
    16	289.849
    17	289.849

Measurement: cfb
  step	2.03369159823303e-009
     1	2.03369e-009
     2	2.03369e-009
     3	2.03369e-009
     4	2.03369e-009
     5	2.03369e-009
     6	2.03369e-009
     7	2.03369e-009
     8	2.03369e-009
     9	2.03369e-009
    10	2.03369e-009
    11	2.03369e-009
    12	2.03369e-009
    13	2.03369e-009
    14	2.03369e-009
    15	2.03369e-009
    16	2.03369e-009
    17	2.03369e-009

Measurement: csource
  step	2.35785300036205e-008
     1	2.35785e-008
     2	2.35785e-008
     3	2.35785e-008
     4	2.35785e-008
     5	2.35785e-008
     6	2.35785e-008
     7	2.35785e-008
     8	2.35785e-008
     9	2.35785e-008
    10	2.35785e-008
    11	2.35785e-008
    12	2.35785e-008
    13	2.35785e-008
    14	2.35785e-008
    15	2.35785e-008
    16	2.35785e-008
    17	2.35785e-008

Measurement: rin_lv_se
  step	10.1111256218167
     1	10.1111
     2	10.1111
     3	10.1111
     4	10.1111
     5	10.1111
     6	10.1111
     7	10.1111
     8	10.1111
     9	10.1111
    10	10.1111
    11	10.1111
    12	10.1111
    13	10.1111
    14	10.1111
    15	10.1111
    16	10.1111
    17	10.1111

Measurement: vg
  step	5.43402777777778
     1	5.43403
     2	5.43403
     3	5.43403
     4	5.43403
     5	5.43403
     6	5.43403
     7	5.43403
     8	5.43403
     9	5.43403
    10	5.43403
    11	5.43403
    12	5.43403
    13	5.43403
    14	5.43403
    15	5.43403
    16	5.43403
    17	5.43403

Measurement: coss
  step	1.3e-010
     1	1.3e-010
     2	1.3e-010
     3	1.3e-010
     4	1.3e-010
     5	1.3e-010
     6	1.3e-010
     7	1.3e-010
     8	1.3e-010
     9	1.3e-010
    10	1.3e-010
    11	1.3e-010
    12	1.3e-010
    13	1.3e-010
    14	1.3e-010
    15	1.3e-010
    16	1.3e-010
    17	1.3e-010

Measurement: ld
  step	2.67282248620977e-005
     1	2.67282e-005
     2	2.67282e-005
     3	2.67282e-005
     4	2.67282e-005
     5	2.67282e-005
     6	2.67282e-005
     7	2.67282e-005
     8	2.67282e-005
     9	2.67282e-005
    10	2.67282e-005
    11	2.67282e-005
    12	2.67282e-005
    13	2.67282e-005
    14	2.67282e-005
    15	2.67282e-005
    16	2.67282e-005
    17	2.67282e-005

Measurement: kin_lp
  step	0.00016
     1	0.00016
     2	0.00016
     3	0.00016
     4	0.00016
     5	0.00016
     6	0.00016
     7	0.00016
     8	0.00016
     9	0.00016
    10	0.00016
    11	0.00016
    12	0.00016
    13	0.00016
    14	0.00016
    15	0.00016
    16	0.00016
    17	0.00016

Measurement: kin_ls
  step	1e-005
     1	1e-005
     2	1e-005
     3	1e-005
     4	1e-005
     5	1e-005
     6	1e-005
     7	1e-005
     8	1e-005
     9	1e-005
    10	1e-005
    11	1e-005
    12	1e-005
    13	1e-005
    14	1e-005
    15	1e-005
    16	1e-005
    17	1e-005

Measurement: kout_lp
  step	1e-005
     1	1e-005
     2	1e-005
     3	1e-005
     4	1e-005
     5	1e-005
     6	1e-005
     7	1e-005
     8	1e-005
     9	1e-005
    10	1e-005
    11	1e-005
    12	1e-005
    13	1e-005
    14	1e-005
    15	1e-005
    16	1e-005
    17	1e-005

Measurement: kout_ls
  step	0.00016
     1	0.00016
     2	0.00016
     3	0.00016
     4	0.00016
     5	0.00016
     6	0.00016
     7	0.00016
     8	0.00016
     9	0.00016
    10	0.00016
    11	0.00016
    12	0.00016
    13	0.00016
    14	0.00016
    15	0.00016
    16	0.00016
    17	0.00016

Measurement: rload_hv_se
  step	51.84
     1	51.84
     2	51.84
     3	51.84
     4	51.84
     5	51.84
     6	51.84
     7	51.84
     8	51.84
     9	51.84
    10	51.84
    11	51.84
    12	51.84
    13	51.84
    14	51.84
    15	51.84
    16	51.84
    17	51.84

Measurement: rsource_hv_se
  step	50
     1	50
     2	50
     3	50
     4	50
     5	50
     6	50
     7	50
     8	50
     9	50
    10	50
    11	50
    12	50
    13	50
    14	50
    15	50
    16	50
    17	50

Measurement: vout_rms_fund
  step	RMS(v(out_bpf))	FROM	TO
     1	10.6783	0	3.7037e-006
     2	12.6986	0	3.7037e-006
     3	15.101	0	3.7037e-006
     4	17.9577	0	3.7037e-006
     5	21.3546	0	3.7037e-006
     6	25.3935	0	3.7037e-006
     7	30.1954	0	3.7037e-006
     8	35.9035	0	3.7037e-006
     9	42.6873	0	3.7037e-006
    10	50.7459	0	3.7037e-006
    11	60.3057	0	3.7037e-006
    12	71.6454	0	3.7037e-006
    13	85.1579	0	3.7037e-006
    14	101.404	0	3.7037e-006
    15	116.404	0	3.7037e-006
    16	127.789	0	3.7037e-006
    17	134.748	0	3.7037e-006

Measurement: av_fund
  step	RMS(v(out_bpf)/(vin/1.414))	FROM	TO
     1	9.66344	0	3.7037e-006
     2	9.66333	0	3.7037e-006
     3	9.66317	0	3.7037e-006
     4	9.66291	0	3.7037e-006
     5	9.66253	0	3.7037e-006
     6	9.66195	0	3.7037e-006
     7	9.66106	0	3.7037e-006
     8	9.6597	0	3.7037e-006
     9	9.65757	0	3.7037e-006
    10	9.65412	0	3.7037e-006
    11	9.64745	0	3.7037e-006
    12	9.63796	0	3.7037e-006
    13	9.63306	0	3.7037e-006
    14	9.64581	0	3.7037e-006
    15	9.31091	0	3.7037e-006
    16	8.5953	0	3.7037e-006
    17	7.62133	0	3.7037e-006

Measurement: pout_fund
  step	((vout_rms_fund**2/rload_hv_se))
     1	2.19958
     2	3.11061
     3	4.39891
     4	6.22067
     5	8.79666
     6	12.4389
     7	17.588
     8	24.8662
     9	35.1505
    10	49.6748
    11	70.1538
    12	99.0175
    13	139.889
    14	198.357
    15	261.379
    16	315.009
    17	350.25

Measurement: g_db
  step	20*log10(av_fund)
     1	19.7026
     2	19.7025
     3	19.7024
     4	19.7022
     5	19.7018
     6	19.7013
     7	19.7005
     8	19.6993
     9	19.6974
    10	19.6943
    11	19.6882
    12	19.6797
    13	19.6753
    14	19.6868
    15	19.3798
    16	18.6852
    17	17.6406

Measurement: pbias
  step	AVG(-v(vd)*i(v1))	FROM	TO
     1	630.081	0	3.7037e-006
     2	630.073	0	3.7037e-006
     3	630.061	0	3.7037e-006
     4	630.045	0	3.7037e-006
     5	630.023	0	3.7037e-006
     6	629.99	0	3.7037e-006
     7	629.943	0	3.7037e-006
     8	629.874	0	3.7037e-006
     9	629.772	0	3.7037e-006
    10	629.616	0	3.7037e-006
    11	629.359	0	3.7037e-006
    12	628.927	0	3.7037e-006
    13	628.065	0	3.7037e-006
    14	626.5	0	3.7037e-006
    15	637.142	0	3.7037e-006
    16	662.147	0	3.7037e-006
    17	671.346	0	3.7037e-006

Measurement: efficiency
  step	pout_fund/pbias
     1	0.00349095
     2	0.0049369
     3	0.00698172
     4	0.00987338
     5	0.0139625
     6	0.0197445
     7	0.02792
     8	0.039478
     9	0.0558147
    10	0.078897
    11	0.111469
    12	0.157439
    13	0.222731
    14	0.316612
    15	0.410236
    16	0.475739
    17	0.521713


Date: Tue Mar 29 10:42:51 2022
Total elapsed time: 8.766 seconds.

tnom = 27
temp = 27
method = modified trap
totiter = 118310
traniter = 118295
tranpoints = 32420
accept = 24793
rejected = 7627
matrix size = 89
fillins = 76
Matrix Compiler1: 11.61 KB object code size  2.3/1.4/[0.9]
Matrix Compiler2: 9.82 KB object code size  1.0/1.3/[0.8]

