Questionable use of curly braces in "b1 n001 0  v={{vg}*smallsig()}"
    Error: undefined symbol in: "(vg)*[smallsig]()"
Questionable use of curly braces in ".meas tran av_fund rms {v(out_bpf)/(vin/1.414)}"
    Error: undefined symbol in: "[v](out_bpf)/(vin/1.414)"
Questionable use of curly braces in ".meas tran pout_fund param {(vout_rms_fund**2/rload_hv_se)}"
    Error: undefined symbol in: "([vout_rms_fund]**2/rload_hv_se)"
Circuit: * K:\Git_personal\BASIC_MRI_RFPA\LTSPICE simulations\RFPA_IRF630N_pushpullx2_tran_param.asc

Instance "m:m4:weak": Length shorter than recommended for a level 1 MOSFET.
Instance "m:m4:weak": Width narrower than recommended for a level 1 MOSFET.
Instance "m:m4:stro": Length shorter than recommended for a level 1 MOSFET.
Instance "m:m4:stro": Width narrower than recommended for a level 1 MOSFET.
Instance "m:m4:med": Length shorter than recommended for a level 1 MOSFET.
Instance "m:m4:med": Width narrower than recommended for a level 1 MOSFET.
Instance "m:m3:weak": Length shorter than recommended for a level 1 MOSFET.
Instance "m:m3:weak": Width narrower than recommended for a level 1 MOSFET.
Instance "m:m3:stro": Length shorter than recommended for a level 1 MOSFET.
Instance "m:m3:stro": Width narrower than recommended for a level 1 MOSFET.
Instance "m:m3:med": Length shorter than recommended for a level 1 MOSFET.
Instance "m:m3:med": Width narrower than recommended for a level 1 MOSFET.
Instance "m:m2:weak": Length shorter than recommended for a level 1 MOSFET.
Instance "m:m2:weak": Width narrower than recommended for a level 1 MOSFET.
Instance "m:m2:stro": Length shorter than recommended for a level 1 MOSFET.
Instance "m:m2:stro": Width narrower than recommended for a level 1 MOSFET.
Instance "m:m2:med": Length shorter than recommended for a level 1 MOSFET.
Instance "m:m2:med": Width narrower than recommended for a level 1 MOSFET.
Instance "m:m1:weak": Length shorter than recommended for a level 1 MOSFET.
Instance "m:m1:weak": Width narrower than recommended for a level 1 MOSFET.
Instance "m:m1:stro": Length shorter than recommended for a level 1 MOSFET.
Instance "m:m1:stro": Width narrower than recommended for a level 1 MOSFET.
Instance "m:m1:med": Length shorter than recommended for a level 1 MOSFET.
Instance "m:m1:med": Width narrower than recommended for a level 1 MOSFET.
Direct Newton iteration for .op point succeeded.

pep: 50=(33.9794dB,0°)
vd: 48=(33.6248dB,0°)
vdmin: 12=(21.5836dB,0°)
rload_lv_se_target: 12.96=(22.2521dB,0°)
rload_lv_se: 12.96=(22.2521dB,0°)
idmin: 0.5=(-6.0206dB,0°)
id: 3.27777777777778=(10.3116dB,0°)
gm0: 5.2=(14.3201dB,0°)
gm: 1=(0dB,0°)
rs: 0.807692307692308=(-1.85508dB,0°)
rgbias: 100=(40dB,0°)
rsource_lv_se: 12.5=(21.9382dB,0°)
rfb: 145.848888888889=(43.2781dB,0°)
cfb: 2.13967197033242e-009=(-173.393dB,0°)
csource: 1.24827511783873e-008=(-158.074dB,0°)
rin_lv_se: 10.2140455990304=(20.184dB,0°)
vg: 6.6774358974359=(16.4922dB,0°)
coss: 2.4e-010=(-192.396dB,0°)
ld: 4.05778846306067e-006=(-107.834dB,0°)
kin_lp: 0.00016=(-75.9176dB,0°)
kin_ls: 1e-005=(-100dB,0°)
kout_lp: 1e-005=(-100dB,0°)
kout_ls: 0.00016=(-75.9176dB,0°)
rload_hv_se: 51.84=(34.2933dB,0°)
rsource_hv_se: 50=(33.9794dB,0°)
atten_vout: 0.707945784384138=(-3dB,0°)
atten_rshunt_in: 73.1005449100671=(37.2784dB,0°)
atten_rshunt_out: 73.1005449100669=(37.2784dB,0°)
atten_rser: 4.40369850149135=(12.8764dB,0°)
f0: 5100000=(134.151dB,0°)
s21_at_f0: mag(s21(v2))=(16.6998dB,0°) at 5.1e+006
s11_at_f0: mag(s11(v2))=(-26.8028dB,0°) at 5.1e+006
s22_at_f0: mag(s22(v2))=(-20.8409dB,0°) at 5.1e+006
kstab_at_f0: kstab(s11(v2),s21(v2),s12(v2),s22(v2))=(4.59289dB,0°) at 5.1e+006
zin_at_f0: mag(zin(v2))=(33.393dB,0°) at 5.1e+006
zout_at_f0: mag(zout(v2))=(32.7445dB,0°) at 5.1e+006
s21_at_s21_max: MAX(mag(s21(v2)))=(17.4346dB,0°) FROM 100000 TO 2e+008
f_at_s21_max: mag(s21(v2))=(s21_at_s21_max) AT 2.42661e+006
kstab_at_stab_min: MIN(kstab(s11(v2),s21(v2),s12(v2),s22(v2)))=(3.94132dB,0°) FROM 100000 TO 2e+008
f_at_kstab_min: kstab(s11(v2),s21(v2),s12(v2),s22(v2))=(kstab_at_stab_min) AT 2.50035e+006


Date: Sun Apr 03 19:52:14 2022
Total elapsed time: 1.051 seconds.

tnom = 27
temp = 27
method = trap
totiter = 12
traniter = 0
tranpoints = 0
accept = 0
rejected = 0
matrix size = 185
fillins = 247
solver = Alternate
Matrix Compiler1:    1395 opcodes
Matrix Compiler2: 23.02 KB object code size
