Circuit: * C:\Users\Joshua Rhodes\Dropbox\Mike Twieg Publications\ISMRM\2022 diy scanner\RFPA board\LTspice\RFPA_tran_param.asc

Rs: both pins shorted together -- ignoring.
Direct Newton iteration for .op point succeeded.

Date: Sat Mar 26 12:39:19 2022
Total elapsed time: 3.755 seconds.

tnom = 27
temp = 27
method = modified trap
totiter = 195014
traniter = 195001
tranpoints = 76690
accept = 51201
rejected = 25489
matrix size = 59
fillins = 73
solver = Alternate
Matrix Compiler1: 9.35 KB object code size  1.6/1.1/[0.9]
Matrix Compiler2: 6.76 KB object code size  0.7/0.9/[0.6]

