Questionable use of curly braces in "b1 n001 0  v={{vg}*smallsig()}"
    Error: undefined symbol in: "(vg)*[smallsig]()"
Circuit: * C:\Users\Joshua Rhodes\Dropbox\Mike Twieg Publications\ISMRM\2022 diy scanner\RFPA board\LTspice\RFPA_IRF630N_pushpullx2_tran_param.asc

Instance "m:m3:weak": Length shorter than recommended for a level 1 MOSFET.
Instance "m:m3:weak": Width narrower than recommended for a level 1 MOSFET.
Instance "m:m3:stro": Length shorter than recommended for a level 1 MOSFET.
Instance "m:m3:stro": Width narrower than recommended for a level 1 MOSFET.
Instance "m:m3:med": Length shorter than recommended for a level 1 MOSFET.
Instance "m:m3:med": Width narrower than recommended for a level 1 MOSFET.
Instance "m:m2:weak": Length shorter than recommended for a level 1 MOSFET.
Instance "m:m2:weak": Width narrower than recommended for a level 1 MOSFET.
Instance "m:m2:stro": Length shorter than recommended for a level 1 MOSFET.
Instance "m:m2:stro": Width narrower than recommended for a level 1 MOSFET.
Instance "m:m2:med": Length shorter than recommended for a level 1 MOSFET.
Instance "m:m2:med": Width narrower than recommended for a level 1 MOSFET.
Instance "m:m1:weak": Length shorter than recommended for a level 1 MOSFET.
Instance "m:m1:weak": Width narrower than recommended for a level 1 MOSFET.
Instance "m:m1:stro": Length shorter than recommended for a level 1 MOSFET.
Instance "m:m1:stro": Width narrower than recommended for a level 1 MOSFET.
Instance "m:m1:med": Length shorter than recommended for a level 1 MOSFET.
Instance "m:m1:med": Width narrower than recommended for a level 1 MOSFET.
Direct Newton iteration for .op point succeeded.

pep: 50=(33.9794dB,0°)
vd: 48=(33.6248dB,0°)
vdmin: 12=(21.5836dB,0°)
rload_lv_se_target: 12.96=(22.2521dB,0°)
rload_lv_se: 12.96=(22.2521dB,0°)
idmin: 0.5=(-6.0206dB,0°)
id: 3.27777777777778=(10.3116dB,0°)
gm0: 10=(20dB,0°)
gm: 2=(6.0206dB,0°)
rs: 0.4=(-7.9588dB,0°)
rgbias: 100=(40dB,0°)
rsource: 12.5=(21.9382dB,0°)
rfb: 289.848888888889=(49.2434dB,0°)
cfb: 1.07666025788807e-009=(-179.358dB,0°)
csource: 1.24827511783873e-008=(-158.074dB,0°)
rin_lv_se: 10.1111256218167=(20.096dB,0°)
vg: 5.31111111111111=(14.5037dB,0°)
coss: 1e-010=(-200dB,0°)
ld: 9.73869231134562e-006=(-100.23dB,0°)
kin_lp: 0.0016=(-55.9176dB,0°)
kin_ls: 0.0001=(-80dB,0°)
kout_lp: 0.0001=(-80dB,0°)
kout_ls: 0.0016=(-55.9176dB,0°)
rload_hv_se: 51.84=(34.2933dB,0°)
rsource_hv_se: 50=(33.9794dB,0°)


Date: Mon Mar 28 20:28:56 2022
Total elapsed time: 0.237 seconds.

tnom = 27
temp = 27
method = trap
totiter = 15
traniter = 0
tranpoints = 0
accept = 0
rejected = 0
matrix size = 146
fillins = 193
solver = Alternate
Matrix Compiler1:    1106 opcodes
Matrix Compiler2: 18.33 KB object code size
