Questionable use of curly braces in "b1 n001 0  v={{vg}*smallsig()}"
    Error: undefined symbol in: "(vg)*[smallsig]()"
Questionable use of curly braces in ".meas tran av_fund rms {v(out_bpf)/(vin/1.414)}"
    Error: undefined symbol in: "[v](out_bpf)/(vin/1.414)"
Questionable use of curly braces in ".meas tran pout_fund param {(vout_rms_fund**2/rload_hv_se)}"
    Error: undefined symbol in: "([vout_rms_fund]**2/rload_hv_se)"
Circuit: * C:\Users\Joshua Rhodes\Dropbox\Mike Twieg Publications\ISMRM\2022 diy scanner\RFPA board\LTspice\RFPA_General_pushpullx2_tran_param_Tlines.asc

Direct Newton iteration for .op point succeeded.
.step tline_rshunt=0.001
.step tline_rshunt=1e+006


Measurement: pep
  step	50
     1	(33.9794dB,0°)
     2	(33.9794dB,0°)

Measurement: vd
  step	48
     1	(33.6248dB,0°)
     2	(33.6248dB,0°)

Measurement: vdmin
  step	12
     1	(21.5836dB,0°)
     2	(21.5836dB,0°)

Measurement: rload_lv_se_target
  step	12.96
     1	(22.2521dB,0°)
     2	(22.2521dB,0°)

Measurement: rload_lv_se
  step	12.96
     1	(22.2521dB,0°)
     2	(22.2521dB,0°)

Measurement: idmin
  step	0.5
     1	(-6.0206dB,0°)
     2	(-6.0206dB,0°)

Measurement: id
  step	3.27777777777778
     1	(10.3116dB,0°)
     2	(10.3116dB,0°)

Measurement: gm0
  step	16
     1	(24.0824dB,0°)
     2	(24.0824dB,0°)

Measurement: gm
  step	2
     1	(6.0206dB,0°)
     2	(6.0206dB,0°)

Measurement: rs
  step	0.4375
     1	(-7.18044dB,0°)
     2	(-7.18044dB,0°)

Measurement: rgbias
  step	100
     1	(40dB,0°)
     2	(40dB,0°)

Measurement: rsource_lv_se
  step	12.5
     1	(21.9382dB,0°)
     2	(21.9382dB,0°)

Measurement: rfb
  step	289.848888888889
     1	(49.2434dB,0°)
     2	(49.2434dB,0°)

Measurement: cfb
  step	2.03369159823303e-009
     1	(-173.834dB,0°)
     2	(-173.834dB,0°)

Measurement: csource
  step	2.35785300036205e-008
     1	(-152.55dB,0°)
     2	(-152.55dB,0°)

Measurement: rin_lv_se
  step	10.1111256218167
     1	(20.096dB,0°)
     2	(20.096dB,0°)

Measurement: vg
  step	5.43402777777778
     1	(14.7024dB,0°)
     2	(14.7024dB,0°)

Measurement: coss
  step	1.3e-010
     1	(-197.721dB,0°)
     2	(-197.721dB,0°)

Measurement: ld
  step	2.67282248620977e-005
     1	(-91.4606dB,0°)
     2	(-91.4606dB,0°)

Measurement: kin_lp
  step	0.00016
     1	(-75.9176dB,0°)
     2	(-75.9176dB,0°)

Measurement: kin_ls
  step	1e-005
     1	(-100dB,0°)
     2	(-100dB,0°)

Measurement: kout_lp
  step	1e-005
     1	(-100dB,0°)
     2	(-100dB,0°)

Measurement: kout_ls
  step	0.00016
     1	(-75.9176dB,0°)
     2	(-75.9176dB,0°)

Measurement: rload_hv_se
  step	51.84
     1	(34.2933dB,0°)
     2	(34.2933dB,0°)

Measurement: rsource_hv_se
  step	50
     1	(33.9794dB,0°)
     2	(33.9794dB,0°)

Measurement: atten_vout
  step	0.707945784384138
     1	(-3dB,0°)
     2	(-3dB,0°)

Measurement: atten_rshunt_in
  step	73.1005449100671
     1	(37.2784dB,0°)
     2	(37.2784dB,0°)

Measurement: atten_rshunt_out
  step	73.1005449100669
     1	(37.2784dB,0°)
     2	(37.2784dB,0°)

Measurement: atten_rser
  step	4.40369850149135
     1	(12.8764dB,0°)
     2	(12.8764dB,0°)


Date: Fri Apr 01 09:24:26 2022
Total elapsed time: 0.758 seconds.

tnom = 27
temp = 27
method = trap
totiter = 15
traniter = 0
tranpoints = 0
accept = 0
rejected = 0
matrix size = 145
fillins = 165
Matrix Compiler1:     894 opcodes
Matrix Compiler2: 16.44 KB object code size
