Questionable use of curly braces in "b1 n001 0  v={{vg}*smallsig()}"
    Error: undefined symbol in: "(vg)*[smallsig]()"
Circuit: * C:\Users\Joshua Rhodes\Dropbox\Mike Twieg Publications\ISMRM\2022 diy scanner\RFPA board\LTspice\RFPA_IRF630_pushpullx2_tran_param.asc

Direct Newton iteration for .op point succeeded.

pep: 50=(33.9794dB,0°)
vd: 48=(33.6248dB,0°)
vdmin: 12=(21.5836dB,0°)
rload_lv_se_target: 12.96=(22.2521dB,0°)
rload_lv_se: 12.96=(22.2521dB,0°)
idmin: 0.5=(-6.0206dB,0°)
id: 3.27777777777778=(10.3116dB,0°)
gm0: 3.7=(11.364dB,0°)
gm: 1=(0dB,0°)
rs: 0.72972972972973=(-2.73676dB,0°)
rgbias: 100=(40dB,0°)
rsource: 12.5=(21.9382dB,0°)
rfb: 145.848888888889=(43.2781dB,0°)
cfb: 2.13967197033242e-009=(-173.393dB,0°)
csource: 1.24827511783873e-008=(-158.074dB,0°)
rin_lv_se: 10.2140455990304=(20.184dB,0°)
vg: 7.79189189189189=(17.8329dB,0°)
coss: 2.4e-010=(-192.396dB,0°)
ld: 4.05778846306067e-006=(-107.834dB,0°)
kin_lp: 0.00016=(-75.9176dB,0°)
kin_ls: 1e-005=(-100dB,0°)
kout_lp: 1e-005=(-100dB,0°)
kout_ls: 0.00016=(-75.9176dB,0°)
rload_hv_se: 51.84=(34.2933dB,0°)
rsource_hv_se: 50=(33.9794dB,0°)


Date: Mon Mar 28 20:29:24 2022
Total elapsed time: 0.136 seconds.

tnom = 27
temp = 27
method = trap
totiter = 15
traniter = 0
tranpoints = 0
accept = 0
rejected = 0
matrix size = 86
fillins = 70
solver = Alternate
Matrix Compiler1:     480 opcodes
Matrix Compiler2: 9.52 KB object code size
