Circuit: * C:\Users\Joshua Rhodes\Dropbox\Mike Twieg Publications\ISMRM\2022 diy scanner\RFPA board\LTspice\RFPA_pushpullx2_tran_param.asc

Direct Newton iteration for .op point succeeded.

pep: 50=50
vd: 48=48
vdmin: 12=12
rload_lv_se_target: 12.96=12.96
rload_lv_se: 12.96=12.96
idmin: 0.5=0.5
id: 3.27777777777778=3.27778
gm0: 16=16
gm: 2=2
rs: 0.4375=0.4375
rgbias: 100=100
rsource: 12.5=12.5
rfb: 289.848888888889=289.849
cfb: 2.03369159823303e-009=2.03369e-009
csource: 2.35785300036205e-008=2.35785e-008
rin_lv_se: 10.1111256218167=10.1111
vg: 5.43402777777778=5.43403
coss: 1.3e-010=1.3e-010
ld: 2.67282248620977e-005=2.67282e-005
kin_lp: 0.00016=0.00016
kin_ls: 1e-005=1e-005
kout_lp: 1e-005=1e-005
kout_ls: 0.00016=0.00016
rload_hv_se: 51.84=51.84
rsource_hv_se: 50=50


Date: Sun Mar 27 19:42:34 2022
Total elapsed time: 8.951 seconds.

tnom = 27
temp = 27
method = modified trap
totiter = 360410
traniter = 360395
tranpoints = 115613
accept = 85009
rejected = 30604
matrix size = 84
fillins = 76
solver = Alternate
Matrix Compiler1: 11.41 KB object code size  2.0/1.4/[0.9]
Matrix Compiler2: 9.52 KB object code size  1.0/1.3/[0.7]

