Questionable use of curly braces in "b1 n002 0  v={{vg}*smallsig()}"
    Error: undefined symbol in: "(vg)*[smallsig]()"
Questionable use of curly braces in ".meas tran av_fund rms {v(out_bpf)/(vin/1.414/2)}"
    Error: undefined symbol in: "[v](out_bpf)/(vin/1.414/2)"
Questionable use of curly braces in ".meas tran pout_fund param {(vout_rms_fund**2/rload_hv_se)}"
    Error: undefined symbol in: "([vout_rms_fund]**2/rload_hv_se)"
Circuit: * C:\Workspace\Git\BASIC_MRI_RFPA\LTSPICE simulations\RFPA_IRF630_pushpullx2_tran_param.asc

Direct Newton iteration for .op point succeeded.

pep: 50=(33.9794dB,0°)
vd: 48=(33.6248dB,0°)
vdmin: 12=(21.5836dB,0°)
rload_lv_se_target: 12.96=(22.2521dB,0°)
rload_lv_se: 12.96=(22.2521dB,0°)
idmin: 0.5=(-6.0206dB,0°)
id: 3.27777777777778=(10.3116dB,0°)
gm0: 3.54=(10.9801dB,0°)
gm: 1=(0dB,0°)
rs: 0.717514124293785=(-2.88339dB,0°)
rgbias: 100=(40dB,0°)
rsource_lv_se: 12.5=(21.9382dB,0°)
rfb: 145.848888888889=(43.2781dB,0°)
cfb: 2.13967197033242e-009=(-173.393dB,0°)
csource: 2.49655023567746e-008=(-152.053dB,0°)
rin_lv_se: 10.2140455990304=(20.184dB,0°)
vg: 7.77185185185185=(17.8105dB,0°)
coss: 2.4e-010=(-192.396dB,0°)
ld: 2.02889423153034e-006=(-113.855dB,0°)
kin_lp: 0.00016=(-75.9176dB,0°)
kin_ls: 1e-005=(-100dB,0°)
kout_lp: 1e-005=(-100dB,0°)
kout_ls: 0.00016=(-75.9176dB,0°)
rload_hv_se: 51.84=(34.2933dB,0°)
rsource_hv_se: 50=(33.9794dB,0°)
atten_vout: 0.707945784384138=(-3dB,0°)
atten_rshunt_in: 73.1005449100671=(37.2784dB,0°)
atten_rshunt_out: 73.1005449100669=(37.2784dB,0°)
atten_rser: 4.40369850149135=(12.8764dB,0°)
f0: 5100000=(134.151dB,0°)
s21_at_f0: mag(s21(v2))=(16.9446dB,0°) at 5.1e+006
s11_at_f0: mag(s11(v2))=(-23.5918dB,0°) at 5.1e+006
s22_at_f0: mag(s22(v2))=(-28.3438dB,0°) at 5.1e+006
kstab_at_f0: kstab(s11(v2),s21(v2),s12(v2),s22(v2))=(3.93274dB,0°) at 5.1e+006
zin_at_f0: mag(zin(v2))=(32.8939dB,0°) at 5.1e+006
zout_at_f0: mag(zout(v2))=(33.6793dB,0°) at 5.1e+006
s21_at_s21_max: MAX(mag(s21(v2)))=(17.4001dB,0°) FROM 100000 TO 2e+008
f_at_s21_max: mag(s21(v2))=(s21_at_s21_max) AT 1.48936e+006
kstab_at_stab_min: MIN(kstab(s11(v2),s21(v2),s12(v2),s22(v2)))=(3.69243dB,0°) FROM 100000 TO 2e+008
f_at_kstab_min: kstab(s11(v2),s21(v2),s12(v2),s22(v2))=(kstab_at_stab_min) AT 2.0797e+006


Date: Wed Apr 06 15:59:29 2022
Total elapsed time: 0.343 seconds.

tnom = 27
temp = 27
method = trap
totiter = 16
traniter = 0
tranpoints = 0
accept = 0
rejected = 0
matrix size = 105
fillins = 88
solver = Normal
Matrix Compiler1:     572 opcodes
Matrix Compiler2: 9.90 KB object code size
