Circuit: * C:\Users\Joshua Rhodes\Dropbox\Mike Twieg Publications\ISMRM\2022 diy scanner\RFPA board\LTspice\RFPA_smallsignal_param.asc

L2: both pins shorted together -- ignoring.
Rs: both pins shorted together -- ignoring.
Direct Newton iteration for .op point succeeded.

pep: 50=(33.9794dB,0°)
vd: 48=(33.6248dB,0°)
vdmin: 10=(20dB,0°)
rload_lv_se: 14.44=(23.1913dB,0°)
idmin: 0.5=(-6.0206dB,0°)
id: 3.13157894736842=(9.91527dB,0°)
gm0: 3.7=(11.364dB,0°)
gm: 1=(0dB,0°)
rs: 0.72972972972973=(-2.73676dB,0°)
rgbias: 100=(40dB,0°)
rsource: 12.5=(21.9382dB,0°)
rfb: 163.773333333333=(44.2849dB,0°)
cfb: 3.59926270103301e-009=(-168.876dB,0°)
csource: 2.35785300036205e-008=(-152.55dB,0°)
rin: 10.3479243763839=(20.2971dB,0°)
vg: 7.68520625889047=(17.7131dB,0°)
coss: 2.4e-010=(-192.396dB,0°)
ld: 1.44777884669696e-005=(-96.786dB,0°)


Date: Sun Mar 27 19:52:40 2022
Total elapsed time: 0.081 seconds.

tnom = 27
temp = 27
method = trap
totiter = 15
traniter = 0
tranpoints = 0
accept = 0
rejected = 0
matrix size = 25
fillins = 10
solver = Alternate
Matrix Compiler1:     105 opcodes
Matrix Compiler2: 2.36 KB object code size
