Circuit: * C:\Users\Joshua Rhodes\Dropbox\Mike Twieg Publications\ISMRM\2022 diy scanner\RFPA board\LTspice\RFPA_smallsignal.asc

L2: both pins shorted together -- ignoring.
Rs: both pins shorted together -- ignoring.
Instance "m:m1:weak": Length shorter than recommended for a level 1 MOSFET.
Instance "m:m1:weak": Width narrower than recommended for a level 1 MOSFET.
Instance "m:m1:stro": Length shorter than recommended for a level 1 MOSFET.
Instance "m:m1:stro": Width narrower than recommended for a level 1 MOSFET.
Instance "m:m1:med": Length shorter than recommended for a level 1 MOSFET.
Instance "m:m1:med": Width narrower than recommended for a level 1 MOSFET.
Direct Newton iteration for .op point succeeded.

Date: Sun Mar 20 13:36:39 2022
Total elapsed time: 0.081 seconds.

tnom = 27
temp = 27
method = trap
totiter = 12
traniter = 0
tranpoints = 0
accept = 0
rejected = 0
matrix size = 45
fillins = 49
solver = Alternate
Matrix Compiler1:     302 opcodes
Matrix Compiler2: 5.26 KB object code size
