Questionable use of curly braces in "b1 n002 0  v={{vg}*smallsig()}"
    Error: undefined symbol in: "(vg)*[smallsig]()"
Questionable use of curly braces in ".meas tran av_fund rms {v(out_bpf)/(vin/1.414)}"
    Error: undefined symbol in: "[v](out_bpf)/(vin/1.414)"
Questionable use of curly braces in ".meas tran pout_fund param {(vout_rms_fund**2/rload_hv_se)}"
    Error: undefined symbol in: "([vout_rms_fund]**2/rload_hv_se)"
Circuit: * K:\Git_personal\BASIC_MRI_RFPA\LTSPICE simulations\RFPA_IRF530N_pushpullx2_tran_param.asc

Direct Newton iteration for .op point succeeded.
.step vin_scale=0.015
.step vin_scale=0.03
.step vin_scale=0.06
.step vin_scale=0.12
.step vin_scale=0.24
.step vin_scale=0.48
.step vin_scale=0.5


Measurement: pep
  step	50
     1	50
     2	50
     3	50
     4	50
     5	50
     6	50
     7	50

Measurement: vd
  step	48
     1	48
     2	48
     3	48
     4	48
     5	48
     6	48
     7	48

Measurement: vdmin
  step	12
     1	12
     2	12
     3	12
     4	12
     5	12
     6	12
     7	12

Measurement: rload_lv_se_target
  step	12.96
     1	12.96
     2	12.96
     3	12.96
     4	12.96
     5	12.96
     6	12.96
     7	12.96

Measurement: rload_lv_se
  step	12.96
     1	12.96
     2	12.96
     3	12.96
     4	12.96
     5	12.96
     6	12.96
     7	12.96

Measurement: idmin
  step	0.5
     1	0.5
     2	0.5
     3	0.5
     4	0.5
     5	0.5
     6	0.5
     7	0.5

Measurement: id
  step	3.27777777777778
     1	3.27778
     2	3.27778
     3	3.27778
     4	3.27778
     5	3.27778
     6	3.27778
     7	3.27778

Measurement: gm0
  step	2.43
     1	2.43
     2	2.43
     3	2.43
     4	2.43
     5	2.43
     6	2.43
     7	2.43

Measurement: gm
  step	2
     1	2
     2	2
     3	2
     4	2
     5	2
     6	2
     7	2

Measurement: rs
  step	0.0884773662551441
     1	0.0884774
     2	0.0884774
     3	0.0884774
     4	0.0884774
     5	0.0884774
     6	0.0884774
     7	0.0884774

Measurement: rgbias
  step	100
     1	100
     2	100
     3	100
     4	100
     5	100
     6	100
     7	100

Measurement: rsource
  step	12.5
     1	12.5
     2	12.5
     3	12.5
     4	12.5
     5	12.5
     6	12.5
     7	12.5

Measurement: rfb
  step	289.848888888889
     1	289.849
     2	289.849
     3	289.849
     4	289.849
     5	289.849
     6	289.849
     7	289.849

Measurement: cfb
  step	2.03369159823303e-009
     1	2.03369e-009
     2	2.03369e-009
     3	2.03369e-009
     4	2.03369e-009
     5	2.03369e-009
     6	2.03369e-009
     7	2.03369e-009

Measurement: csource
  step	2.35785300036205e-008
     1	2.35785e-008
     2	2.35785e-008
     3	2.35785e-008
     4	2.35785e-008
     5	2.35785e-008
     6	2.35785e-008
     7	2.35785e-008

Measurement: rin_lv_se
  step	10.1111256218167
     1	10.1111
     2	10.1111
     3	10.1111
     4	10.1111
     5	10.1111
     6	10.1111
     7	10.1111

Measurement: vg
  step	4.26000914494742
     1	4.26001
     2	4.26001
     3	4.26001
     4	4.26001
     5	4.26001
     6	4.26001
     7	4.26001

Measurement: coss
  step	1.3e-010
     1	1.3e-010
     2	1.3e-010
     3	1.3e-010
     4	1.3e-010
     5	1.3e-010
     6	1.3e-010
     7	1.3e-010

Measurement: ld
  step	2.67282248620977e-005
     1	2.67282e-005
     2	2.67282e-005
     3	2.67282e-005
     4	2.67282e-005
     5	2.67282e-005
     6	2.67282e-005
     7	2.67282e-005

Measurement: kin_lp
  step	0.00016
     1	0.00016
     2	0.00016
     3	0.00016
     4	0.00016
     5	0.00016
     6	0.00016
     7	0.00016

Measurement: kin_ls
  step	1e-005
     1	1e-005
     2	1e-005
     3	1e-005
     4	1e-005
     5	1e-005
     6	1e-005
     7	1e-005

Measurement: kout_lp
  step	1e-005
     1	1e-005
     2	1e-005
     3	1e-005
     4	1e-005
     5	1e-005
     6	1e-005
     7	1e-005

Measurement: kout_ls
  step	0.00016
     1	0.00016
     2	0.00016
     3	0.00016
     4	0.00016
     5	0.00016
     6	0.00016
     7	0.00016

Measurement: rload_hv_se
  step	51.84
     1	51.84
     2	51.84
     3	51.84
     4	51.84
     5	51.84
     6	51.84
     7	51.84

Measurement: rsource_hv_se
  step	50
     1	50
     2	50
     3	50
     4	50
     5	50
     6	50
     7	50

Measurement: vout_rms_fund
  step	RMS(v(out_bpf))	FROM	TO
     1	6.32173	0	3.7037e-006
     2	12.644	0	3.7037e-006
     3	25.2813	0	3.7037e-006
     4	50.4968	0	3.7037e-006
     5	99.9526	0	3.7037e-006
     6	142.693	0	3.7037e-006
     7	143.225	0	3.7037e-006

Measurement: av_fund
  step	RMS(v(out_bpf)/(vin/1.414))	FROM	TO
     1	14.8982	0	3.7037e-006
     2	14.8988	0	3.7037e-006
     3	14.8949	0	3.7037e-006
     4	14.8755	0	3.7037e-006
     5	14.7222	0	3.7037e-006
     6	10.5088	0	3.7037e-006
     7	10.126	0	3.7037e-006

Measurement: pout_fund
  step	((vout_rms_fund**2/rload_hv_se))
     1	0.770916
     2	3.08391
     3	12.3292
     4	49.1883
     5	192.718
     6	392.773
     7	395.708

Measurement: g_db
  step	20*log10(av_fund)
     1	23.4627
     2	23.463
     3	23.4608
     4	23.4494
     5	23.3594
     6	20.431
     7	20.1088

Measurement: pbias
  step	AVG(-v(vd)*i(v1))	FROM	TO
     1	593.324	0	3.7037e-006
     2	593.267	0	3.7037e-006
     3	593.028	0	3.7037e-006
     4	591.947	0	3.7037e-006
     5	588.343	0	3.7037e-006
     6	794.508	0	3.7037e-006
     7	807.715	0	3.7037e-006

Measurement: efficiency
  step	pout_fund/pbias
     1	0.00129932
     2	0.00519818
     3	0.0207903
     4	0.0830958
     5	0.327561
     6	0.494361
     7	0.48991


Date: Sun Apr 03 19:55:01 2022
Total elapsed time: 5.266 seconds.

tnom = 27
temp = 27
method = modified trap
totiter = 127458
traniter = 127443
tranpoints = 35173
accept = 26285
rejected = 8888
matrix size = 89
fillins = 76
Matrix Compiler1: 11.61 KB object code size  2.1/1.4/[0.9]
Matrix Compiler2: 9.82 KB object code size  1.0/1.3/[0.8]

