Circuit: * C:\Users\Joshua Rhodes\Dropbox\Mike Twieg Publications\ISMRM\2022 diy scanner\RFPA board\RFPA_tran.asc

Rs: both pins shorted together -- ignoring.
Direct Newton iteration for .op point succeeded.

Date: Sun Mar 20 10:22:35 2022
Total elapsed time: 0.958 seconds.

tnom = 27
temp = 27
method = modified trap
totiter = 110358
traniter = 110343
tranpoints = 46991
accept = 31989
rejected = 15002
matrix size = 55
fillins = 67
solver = Alternate
Matrix Compiler1: 7.89 KB object code size  1.4/1.0/[0.7]
Matrix Compiler2: 6.32 KB object code size  0.7/0.9/[0.5]

