Questionable use of curly braces in "b1 n001 0  v={{vg}*smallsig()}"
    Error: undefined symbol in: "(vg)*[smallsig]()"
Questionable use of curly braces in ".meas tran av_fund rms {v(out_bpf)/(vin/1.414)}"
    Error: undefined symbol in: "[v](out_bpf)/(vin/1.414)"
Questionable use of curly braces in ".meas tran pout_fund param {(vout_rms_fund**2/rload_hv_se)}"
    Error: undefined symbol in: "([vout_rms_fund]**2/rload_hv_se)"
Circuit: * K:\Git_personal\BASIC_MRI_RFPA\LTSPICE simulations\RFPA_IRF630_pushpullx2_tran_param_trafomodel.asc

WARNING: Less than two connections to node NC_01.  This node is used by L5.
WARNING: Less than two connections to node NC_02.  This node is used by L6.
WARNING: Less than two connections to node N003.  This node is used by L7.
WARNING: Less than two connections to node NC_03.  This node is used by L8.
WARNING: Less than two connections to node NC_04.  This node is used by L9.
WARNING: Less than two connections to node N002.  This node is used by L10.
WARNING: Less than two connections to node T2.  This node is used by V3.
Direct Newton iteration for .op point succeeded.
.step vin_scale=0.25
.step vin_scale=0.75
.step vin_scale=0.775
.step vin_scale=0.8
.step vin_scale=0.825
.step vin_scale=0.85
.step vin_scale=0.875
.step vin_scale=0.9
.step vin_scale=0.925
.step vin_scale=0.95
.step vin_scale=0.975
.step vin_scale=1


Measurement: vout_rms_fund
  step	RMS(v(out_bpf))	FROM	TO
     1	31.2102	0	1.96078e-006
     2	87.8679	0	1.96078e-006
     3	89.9606	0	1.96078e-006
     4	91.8257	0	1.96078e-006
     5	93.4623	0	1.96078e-006
     6	94.7929	0	1.96078e-006
     7	96.0309	0	1.96078e-006
     8	97.1836	0	1.96078e-006
     9	98.307	0	1.96078e-006
    10	99.3664	0	1.96078e-006
    11	100.374	0	1.96078e-006
    12	101.363	0	1.96078e-006

Measurement: av_fund
  step	RMS(v(out_bpf)/(vin/1.414))	FROM	TO
     1	5.88416	0	1.96078e-006
     2	5.52201	0	1.96078e-006
     3	5.47115	0	1.96078e-006
     4	5.41007	0	1.96078e-006
     5	5.33962	0	1.96078e-006
     6	5.25636	0	1.96078e-006
     7	5.17286	0	1.96078e-006
     8	5.08954	0	1.96078e-006
     9	5.00923	0	1.96078e-006
    10	4.92997	0	1.96078e-006
    11	4.85227	0	1.96078e-006
    12	4.77759	0	1.96078e-006

Measurement: pout_fund
  step	((vout_rms_fund**2/rload_hv_se))
     1	18.7901
     2	148.934
     3	156.113
     4	162.654
     5	168.503
     6	173.335
     7	177.892
     8	182.189
     9	186.425
    10	190.465
    11	194.347
    12	198.197

Measurement: g_db
  step	20*log10(av_fund)
     1	15.3937
     2	14.8419
     3	14.7616
     4	14.6641
     5	14.5502
     6	14.4137
     7	14.2746
     8	14.1336
     9	13.9954
    10	13.8569
    11	13.7189
    12	13.5842

Measurement: pbias
  step	AVG(-v(vd)*i(v1))	FROM	TO
     1	621.896	0	1.96078e-006
     2	646.625	0	1.96078e-006
     3	649.781	0	1.96078e-006
     4	653.809	0	1.96078e-006
     5	659.465	0	1.96078e-006
     6	665.885	0	1.96078e-006
     7	673.061	0	1.96078e-006
     8	680.26	0	1.96078e-006
     9	687.549	0	1.96078e-006
    10	695.144	0	1.96078e-006
    11	702.838	0	1.96078e-006
    12	710.476	0	1.96078e-006

Measurement: efficiency
  step	pout_fund/pbias
     1	0.0302141
     2	0.230326
     3	0.240255
     4	0.248779
     5	0.255515
     6	0.260308
     7	0.264303
     8	0.267822
     9	0.271144
    10	0.273993
    11	0.276518
    12	0.278963

Measurement: pep
  step	50
     1	50
     2	50
     3	50
     4	50
     5	50
     6	50
     7	50
     8	50
     9	50
    10	50
    11	50
    12	50

Measurement: vd
  step	48
     1	48
     2	48
     3	48
     4	48
     5	48
     6	48
     7	48
     8	48
     9	48
    10	48
    11	48
    12	48

Measurement: vdmin
  step	12
     1	12
     2	12
     3	12
     4	12
     5	12
     6	12
     7	12
     8	12
     9	12
    10	12
    11	12
    12	12

Measurement: rload_lv_se_target
  step	12.96
     1	12.96
     2	12.96
     3	12.96
     4	12.96
     5	12.96
     6	12.96
     7	12.96
     8	12.96
     9	12.96
    10	12.96
    11	12.96
    12	12.96

Measurement: rload_lv_se
  step	12.96
     1	12.96
     2	12.96
     3	12.96
     4	12.96
     5	12.96
     6	12.96
     7	12.96
     8	12.96
     9	12.96
    10	12.96
    11	12.96
    12	12.96

Measurement: idmin
  step	0.5
     1	0.5
     2	0.5
     3	0.5
     4	0.5
     5	0.5
     6	0.5
     7	0.5
     8	0.5
     9	0.5
    10	0.5
    11	0.5
    12	0.5

Measurement: id
  step	3.27777777777778
     1	3.27778
     2	3.27778
     3	3.27778
     4	3.27778
     5	3.27778
     6	3.27778
     7	3.27778
     8	3.27778
     9	3.27778
    10	3.27778
    11	3.27778
    12	3.27778

Measurement: gm0
  step	3.54
     1	3.54
     2	3.54
     3	3.54
     4	3.54
     5	3.54
     6	3.54
     7	3.54
     8	3.54
     9	3.54
    10	3.54
    11	3.54
    12	3.54

Measurement: gm
  step	1
     1	1
     2	1
     3	1
     4	1
     5	1
     6	1
     7	1
     8	1
     9	1
    10	1
    11	1
    12	1

Measurement: rs
  step	0.717514124293785
     1	0.717514
     2	0.717514
     3	0.717514
     4	0.717514
     5	0.717514
     6	0.717514
     7	0.717514
     8	0.717514
     9	0.717514
    10	0.717514
    11	0.717514
    12	0.717514

Measurement: rgbias
  step	100
     1	100
     2	100
     3	100
     4	100
     5	100
     6	100
     7	100
     8	100
     9	100
    10	100
    11	100
    12	100

Measurement: rsource_lv_se
  step	12.5
     1	12.5
     2	12.5
     3	12.5
     4	12.5
     5	12.5
     6	12.5
     7	12.5
     8	12.5
     9	12.5
    10	12.5
    11	12.5
    12	12.5

Measurement: rfb
  step	145.848888888889
     1	145.849
     2	145.849
     3	145.849
     4	145.849
     5	145.849
     6	145.849
     7	145.849
     8	145.849
     9	145.849
    10	145.849
    11	145.849
    12	145.849

Measurement: cfb
  step	2.13967197033242e-009
     1	2.13967e-009
     2	2.13967e-009
     3	2.13967e-009
     4	2.13967e-009
     5	2.13967e-009
     6	2.13967e-009
     7	2.13967e-009
     8	2.13967e-009
     9	2.13967e-009
    10	2.13967e-009
    11	2.13967e-009
    12	2.13967e-009

Measurement: csource
  step	2.49655023567746e-008
     1	2.49655e-008
     2	2.49655e-008
     3	2.49655e-008
     4	2.49655e-008
     5	2.49655e-008
     6	2.49655e-008
     7	2.49655e-008
     8	2.49655e-008
     9	2.49655e-008
    10	2.49655e-008
    11	2.49655e-008
    12	2.49655e-008

Measurement: rin_lv_se
  step	10.2140455990304
     1	10.214
     2	10.214
     3	10.214
     4	10.214
     5	10.214
     6	10.214
     7	10.214
     8	10.214
     9	10.214
    10	10.214
    11	10.214
    12	10.214

Measurement: vg
  step	7.77185185185185
     1	7.77185
     2	7.77185
     3	7.77185
     4	7.77185
     5	7.77185
     6	7.77185
     7	7.77185
     8	7.77185
     9	7.77185
    10	7.77185
    11	7.77185
    12	7.77185

Measurement: coss
  step	2.4e-010
     1	2.4e-010
     2	2.4e-010
     3	2.4e-010
     4	2.4e-010
     5	2.4e-010
     6	2.4e-010
     7	2.4e-010
     8	2.4e-010
     9	2.4e-010
    10	2.4e-010
    11	2.4e-010
    12	2.4e-010

Measurement: ld
  step	3.3e-006
     1	3.3e-006
     2	3.3e-006
     3	3.3e-006
     4	3.3e-006
     5	3.3e-006
     6	3.3e-006
     7	3.3e-006
     8	3.3e-006
     9	3.3e-006
    10	3.3e-006
    11	3.3e-006
    12	3.3e-006

Measurement: kin_lp
  step	0.00016
     1	0.00016
     2	0.00016
     3	0.00016
     4	0.00016
     5	0.00016
     6	0.00016
     7	0.00016
     8	0.00016
     9	0.00016
    10	0.00016
    11	0.00016
    12	0.00016

Measurement: kin_ls
  step	1e-005
     1	1e-005
     2	1e-005
     3	1e-005
     4	1e-005
     5	1e-005
     6	1e-005
     7	1e-005
     8	1e-005
     9	1e-005
    10	1e-005
    11	1e-005
    12	1e-005

Measurement: kout_lp
  step	1e-005
     1	1e-005
     2	1e-005
     3	1e-005
     4	1e-005
     5	1e-005
     6	1e-005
     7	1e-005
     8	1e-005
     9	1e-005
    10	1e-005
    11	1e-005
    12	1e-005

Measurement: kout_ls
  step	0.00016
     1	0.00016
     2	0.00016
     3	0.00016
     4	0.00016
     5	0.00016
     6	0.00016
     7	0.00016
     8	0.00016
     9	0.00016
    10	0.00016
    11	0.00016
    12	0.00016

Measurement: rload_hv_se
  step	51.84
     1	51.84
     2	51.84
     3	51.84
     4	51.84
     5	51.84
     6	51.84
     7	51.84
     8	51.84
     9	51.84
    10	51.84
    11	51.84
    12	51.84

Measurement: rsource_hv_se
  step	50
     1	50
     2	50
     3	50
     4	50
     5	50
     6	50
     7	50
     8	50
     9	50
    10	50
    11	50
    12	50

Measurement: atten_vout
  step	0.707945784384138
     1	0.707946
     2	0.707946
     3	0.707946
     4	0.707946
     5	0.707946
     6	0.707946
     7	0.707946
     8	0.707946
     9	0.707946
    10	0.707946
    11	0.707946
    12	0.707946

Measurement: atten_rshunt_in
  step	73.1005449100671
     1	73.1005
     2	73.1005
     3	73.1005
     4	73.1005
     5	73.1005
     6	73.1005
     7	73.1005
     8	73.1005
     9	73.1005
    10	73.1005
    11	73.1005
    12	73.1005

Measurement: atten_rshunt_out
  step	73.1005449100669
     1	73.1005
     2	73.1005
     3	73.1005
     4	73.1005
     5	73.1005
     6	73.1005
     7	73.1005
     8	73.1005
     9	73.1005
    10	73.1005
    11	73.1005
    12	73.1005

Measurement: atten_rser
  step	4.40369850149135
     1	4.4037
     2	4.4037
     3	4.4037
     4	4.4037
     5	4.4037
     6	4.4037
     7	4.4037
     8	4.4037
     9	4.4037
    10	4.4037
    11	4.4037
    12	4.4037

Measurement: f0
  step	5100000
     1	5.1e+006
     2	5.1e+006
     3	5.1e+006
     4	5.1e+006
     5	5.1e+006
     6	5.1e+006
     7	5.1e+006
     8	5.1e+006
     9	5.1e+006
    10	5.1e+006
    11	5.1e+006
    12	5.1e+006


Date: Fri Apr 08 09:41:28 2022
Total elapsed time: 49.056 seconds.

tnom = 27
temp = 27
method = modified trap
totiter = 235406
traniter = 235391
tranpoints = 84503
accept = 62307
rejected = 22196
matrix size = 132
fillins = 158
Thread vector: 10.0/10.5[3] 5.7/4.8[3] 1.0/1.8[1] 1.5/2.1[1]  2592/500
Matrix Compiler1: 25.04 KB object code size  4.9/3.0/[2.1]
Matrix Compiler2: 16.21 KB object code size  1.9/2.2/[1.2]

