Circuit: * K:\Git_personal\BASIC_MRI_RFPA\LTSPICE simulations\test_HP4_140L_model.asc

WARNING: Less than two connections to node NC_01.  This node is used by R9.

Date: Fri Apr 08 01:03:35 2022
Total elapsed time: 0.059 seconds.

tnom = 27
temp = 27
method = trap
totiter = 0
traniter = 0
tranpoints = 0
accept = 0
rejected = 0
matrix size = 14
fillins = 22
solver = Alternate

